REMARK SMILES C[NH2+][C@]1(c2ccccc2Cl)CCCCC1=O
REMARK SMILES IDX 3 1 11 2 15 3 12 4 14 5 16 6 13 7 2 8 1 9 4 12 5 13 9 14
REMARK SMILES IDX 6 15 8 16 7 17 10 18
REMARK H PARENT 2 10 2 11
ROOT
ATOM      1  C   UNL     1      -0.402   0.703   0.098  1.00  0.00     0.182 C 
ATOM      2  C   UNL     1      -1.104   0.627  -1.293  1.00  0.00     0.082 C 
ATOM      3  C   UNL     1      -0.550  -0.689   0.800  1.00  0.00     0.197 C 
ATOM      4  C   UNL     1      -2.500   0.018  -1.293  1.00  0.00     0.008 C 
ATOM      5  C   UNL     1      -1.843  -1.472   0.625  1.00  0.00     0.083 C 
ATOM      6  O   UNL     1       0.282  -1.107   1.607  1.00  0.00    -0.292 OA
ATOM      7  C   UNL     1      -2.427  -1.408  -0.772  1.00  0.00     0.008 C 
ENDROOT
BRANCH   1   8
ATOM      8  N   UNL     1      -1.111   1.856   0.869  1.00  0.00    -0.334 N 
ATOM      9  C   UNL     1      -2.201   1.577   1.839  1.00  0.00     0.332 C 
ATOM     10  H   UNL     1      -1.389   2.596   0.214  1.00  0.00     0.347 HD
ATOM     11  H   UNL     1      -0.377   2.293   1.447  1.00  0.00     0.347 HD
ENDBRANCH   1   8
BRANCH   1  12
ATOM     12  C   UNL     1       1.114   1.077  -0.040  1.00  0.00     0.039 A 
ATOM     13  C   UNL     1       1.781   1.038  -1.287  1.00  0.00     0.012 A 
ATOM     14  C   UNL     1       1.913   1.444   1.075  1.00  0.00     0.050 A 
ATOM     15  C   UNL     1       3.145   1.332  -1.412  1.00  0.00     0.001 A 
ATOM     16  C   UNL     1       3.279   1.735   0.945  1.00  0.00     0.021 A 
ATOM     17  C   UNL     1       3.894   1.676  -0.297  1.00  0.00     0.002 A 
ATOM     18  Cl  UNL     1       1.265   1.644   2.671  1.00  0.00    -0.084 Cl
ENDBRANCH   1  12
TORSDOF 2
