MODEL 1
REMARK VINA RESULT:    -5.313      0.000      0.000
REMARK INTER + INTRA:          -5.815
REMARK INTER:                  -5.934
REMARK INTRA:                   0.119
REMARK UNBOUND:                 0.119
REMARK SMILES C[NH2+][C@]1(c2ccccc2Cl)CCCCC1=O
REMARK SMILES IDX 3 1 11 2 15 3 12 4 14 5 16 6 13 7 2 8 1 9 4 12 5 13 9 14
REMARK SMILES IDX 6 15 8 16 7 17 10 18
REMARK H PARENT 2 10 2 11
ROOT
ATOM      1  C   UNL     1     -39.872  43.774 -47.062  1.00  0.00     0.182 C 
ATOM      2  C   UNL     1     -39.670  42.435 -47.836  1.00  0.00     0.082 C 
ATOM      3  C   UNL     1     -40.479  43.443 -45.657  1.00  0.00     0.197 C 
ATOM      4  C   UNL     1     -40.858  41.482 -47.824  1.00  0.00     0.008 C 
ATOM      5  C   UNL     1     -41.495  42.317 -45.537  1.00  0.00     0.083 C 
ATOM      6  O   UNL     1     -40.277  44.155 -44.672  1.00  0.00    -0.292 OA
ATOM      7  C   UNL     1     -41.183  41.102 -46.388  1.00  0.00     0.008 C 
ENDROOT
BRANCH   1   8
ATOM      8  N   UNL     1     -40.816  44.639 -47.949  1.00  0.00    -0.334 N 
ATOM      9  C   UNL     1     -40.555  44.822 -49.400  1.00  0.00     0.332 C 
ATOM     10  H   UNL     1     -40.993  45.542 -47.495  1.00  0.00     0.347 HD
ATOM     11  H   UNL     1     -41.730  44.161 -47.925  1.00  0.00     0.347 HD
ENDBRANCH   1   8
BRANCH   1  12
ATOM     12  C   UNL     1     -38.522  44.553 -46.894  1.00  0.00     0.039 A 
ATOM     13  C   UNL     1     -37.269  43.918 -47.057  1.00  0.00     0.012 A 
ATOM     14  C   UNL     1     -38.475  45.927 -46.539  1.00  0.00     0.050 A 
ATOM     15  C   UNL     1     -36.058  44.597 -46.870  1.00  0.00     0.001 A 
ATOM     16  C   UNL     1     -37.260  46.603 -46.350  1.00  0.00     0.021 A 
ATOM     17  C   UNL     1     -36.054  45.937 -46.512  1.00  0.00     0.002 A 
ATOM     18  Cl  UNL     1     -39.896  46.909 -46.387  1.00  0.00    -0.084 Cl
ENDBRANCH   1  12
TORSDOF 2
ENDMDL
MODEL 2
REMARK VINA RESULT:    -5.178      1.984      2.684
REMARK INTER + INTRA:          -5.664
REMARK INTER:                  -5.821
REMARK INTRA:                   0.157
REMARK UNBOUND:                 0.119
REMARK SMILES C[NH2+][C@]1(c2ccccc2Cl)CCCCC1=O
REMARK SMILES IDX 3 1 11 2 15 3 12 4 14 5 16 6 13 7 2 8 1 9 4 12 5 13 9 14
REMARK SMILES IDX 6 15 8 16 7 17 10 18
REMARK H PARENT 2 10 2 11
ROOT
ATOM      1  C   UNL     1     -39.979  44.059 -46.273  1.00  0.00     0.182 C 
ATOM      2  C   UNL     1     -41.015  45.046 -46.894  1.00  0.00     0.082 C 
ATOM      3  C   UNL     1     -40.011  42.729 -47.099  1.00  0.00     0.197 C 
ATOM      4  C   UNL     1     -42.393  44.463 -47.176  1.00  0.00     0.008 C 
ATOM      5  C   UNL     1     -41.343  42.222 -47.634  1.00  0.00     0.083 C 
ATOM      6  O   UNL     1     -39.023  42.001 -47.208  1.00  0.00    -0.292 OA
ATOM      7  C   UNL     1     -42.259  43.310 -48.158  1.00  0.00     0.008 C 
ENDROOT
BRANCH   1   8
ATOM      8  N   UNL     1     -40.411  43.868 -44.789  1.00  0.00    -0.334 N 
ATOM      9  C   UNL     1     -41.423  42.850 -44.406  1.00  0.00     0.332 C 
ATOM     10  H   UNL     1     -40.636  44.778 -44.370  1.00  0.00     0.347 HD
ATOM     11  H   UNL     1     -39.560  43.564 -44.291  1.00  0.00     0.347 HD
ENDBRANCH   1   8
BRANCH   1  12
ATOM     12  C   UNL     1     -38.531  44.661 -46.280  1.00  0.00     0.039 A 
ATOM     13  C   UNL     1     -37.740  44.711 -45.108  1.00  0.00     0.012 A 
ATOM     14  C   UNL     1     -37.943  45.217 -47.446  1.00  0.00     0.050 A 
ATOM     15  C   UNL     1     -36.461  45.284 -45.097  1.00  0.00     0.001 A 
ATOM     16  C   UNL     1     -36.663  45.791 -47.429  1.00  0.00     0.021 A 
ATOM     17  C   UNL     1     -35.925  45.827 -46.255  1.00  0.00     0.002 A 
ATOM     18  Cl  UNL     1     -38.708  45.167 -49.001  1.00  0.00    -0.084 Cl
ENDBRANCH   1  12
TORSDOF 2
ENDMDL
MODEL 3
REMARK VINA RESULT:    -5.176     27.850     29.665
REMARK INTER + INTRA:          -5.662
REMARK INTER:                  -5.785
REMARK INTRA:                   0.123
REMARK UNBOUND:                 0.119
REMARK SMILES C[NH2+][C@]1(c2ccccc2Cl)CCCCC1=O
REMARK SMILES IDX 3 1 11 2 15 3 12 4 14 5 16 6 13 7 2 8 1 9 4 12 5 13 9 14
REMARK SMILES IDX 6 15 8 16 7 17 10 18
REMARK H PARENT 2 10 2 11
ROOT
ATOM      1  C   UNL     1     -10.569  51.212 -46.856  1.00  0.00     0.182 C 
ATOM      2  C   UNL     1     -10.803  52.001 -45.532  1.00  0.00     0.082 C 
ATOM      3  C   UNL     1      -9.026  51.131 -47.114  1.00  0.00     0.197 C 
ATOM      4  C   UNL     1     -10.029  53.306 -45.398  1.00  0.00     0.008 C 
ATOM      5  C   UNL     1      -8.153  52.325 -46.757  1.00  0.00     0.083 C 
ATOM      6  O   UNL     1      -8.513  50.195 -47.729  1.00  0.00    -0.292 OA
ATOM      7  C   UNL     1      -8.539  53.016 -45.465  1.00  0.00     0.008 C 
ENDROOT
BRANCH   1   8
ATOM      8  N   UNL     1     -11.333  51.999 -47.961  1.00  0.00    -0.334 N 
ATOM      9  C   UNL     1     -12.740  52.433 -47.763  1.00  0.00     0.332 C 
ATOM     10  H   UNL     1     -11.223  51.528 -48.867  1.00  0.00     0.347 HD
ATOM     11  H   UNL     1     -10.819  52.886 -48.074  1.00  0.00     0.347 HD
ENDBRANCH   1   8
BRANCH   1  12
ATOM     12  C   UNL     1     -11.178  49.769 -46.784  1.00  0.00     0.039 A 
ATOM     13  C   UNL     1     -11.453  49.137 -45.549  1.00  0.00     0.012 A 
ATOM     14  C   UNL     1     -11.458  49.001 -47.945  1.00  0.00     0.050 A 
ATOM     15  C   UNL     1     -11.960  47.833 -45.476  1.00  0.00     0.001 A 
ATOM     16  C   UNL     1     -11.963  47.695 -47.867  1.00  0.00     0.021 A 
ATOM     17  C   UNL     1     -12.211  47.111 -46.633  1.00  0.00     0.002 A 
ATOM     18  Cl  UNL     1     -11.282  49.628 -49.552  1.00  0.00    -0.084 Cl
ENDBRANCH   1  12
TORSDOF 2
ENDMDL
MODEL 4
REMARK VINA RESULT:    -5.167     26.788     29.314
REMARK INTER + INTRA:          -5.651
REMARK INTER:                  -5.615
REMARK INTRA:                  -0.036
REMARK UNBOUND:                 0.119
REMARK SMILES C[NH2+][C@]1(c2ccccc2Cl)CCCCC1=O
REMARK SMILES IDX 3 1 11 2 15 3 12 4 14 5 16 6 13 7 2 8 1 9 4 12 5 13 9 14
REMARK SMILES IDX 6 15 8 16 7 17 10 18
REMARK H PARENT 2 10 2 11
ROOT
ATOM      1  C   UNL     1     -11.421  50.397 -47.375  1.00  0.00     0.182 C 
ATOM      2  C   UNL     1     -10.996  49.943 -48.806  1.00  0.00     0.082 C 
ATOM      3  C   UNL     1     -11.416  49.142 -46.439  1.00  0.00     0.197 C 
ATOM      4  C   UNL     1     -11.702  48.702 -49.339  1.00  0.00     0.008 C 
ATOM      5  C   UNL     1     -11.874  47.802 -46.996  1.00  0.00     0.083 C 
ATOM      6  O   UNL     1     -11.195  49.228 -45.230  1.00  0.00    -0.292 OA
ATOM      7  C   UNL     1     -11.420  47.528 -48.415  1.00  0.00     0.008 C 
ENDROOT
BRANCH   1   8
ATOM      8  N   UNL     1     -12.833  51.036 -47.534  1.00  0.00    -0.334 N 
ATOM      9  C   UNL     1     -14.041  50.387 -46.962  1.00  0.00     0.332 C 
ATOM     10  H   UNL     1     -12.991  51.296 -48.515  1.00  0.00     0.347 HD
ATOM     11  H   UNL     1     -12.784  51.939 -47.039  1.00  0.00     0.347 HD
ENDBRANCH   1   8
BRANCH   1  12
ATOM     12  C   UNL     1     -10.457  51.495 -46.808  1.00  0.00     0.039 A 
ATOM     13  C   UNL     1     -10.945  52.644 -46.143  1.00  0.00     0.012 A 
ATOM     14  C   UNL     1      -9.047  51.420 -46.955  1.00  0.00     0.050 A 
ATOM     15  C   UNL     1     -10.092  53.649 -45.668  1.00  0.00     0.001 A 
ATOM     16  C   UNL     1      -8.197  52.430 -46.480  1.00  0.00     0.021 A 
ATOM     17  C   UNL     1      -8.720  53.545 -45.840  1.00  0.00     0.002 A 
ATOM     18  Cl  UNL     1      -8.245  50.050 -47.653  1.00  0.00    -0.084 Cl
ENDBRANCH   1  12
TORSDOF 2
ENDMDL
MODEL 5
REMARK VINA RESULT:    -5.159      2.432      5.016
REMARK INTER + INTRA:          -5.643
REMARK INTER:                  -5.535
REMARK INTRA:                  -0.108
REMARK UNBOUND:                 0.119
REMARK SMILES C[NH2+][C@]1(c2ccccc2Cl)CCCCC1=O
REMARK SMILES IDX 3 1 11 2 15 3 12 4 14 5 16 6 13 7 2 8 1 9 4 12 5 13 9 14
REMARK SMILES IDX 6 15 8 16 7 17 10 18
REMARK H PARENT 2 10 2 11
ROOT
ATOM      1  C   UNL     1     -38.464  45.659 -45.831  1.00  0.00     0.182 C 
ATOM      2  C   UNL     1     -37.257  44.870 -45.236  1.00  0.00     0.082 C 
ATOM      3  C   UNL     1     -38.286  45.732 -47.385  1.00  0.00     0.197 C 
ATOM      4  C   UNL     1     -35.883  45.293 -45.738  1.00  0.00     0.008 C 
ATOM      5  C   UNL     1     -36.889  45.899 -47.963  1.00  0.00     0.083 C 
ATOM      6  O   UNL     1     -39.249  45.805 -48.151  1.00  0.00    -0.292 OA
ATOM      7  C   UNL     1     -35.817  45.104 -47.245  1.00  0.00     0.008 C 
ENDROOT
BRANCH   1   8
ATOM      8  N   UNL     1     -38.435  47.058 -45.146  1.00  0.00    -0.334 N 
ATOM      9  C   UNL     1     -38.561  48.307 -45.940  1.00  0.00     0.332 C 
ATOM     10  H   UNL     1     -37.638  47.116 -44.502  1.00  0.00     0.347 HD
ATOM     11  H   UNL     1     -39.261  47.079 -44.528  1.00  0.00     0.347 HD
ENDBRANCH   1   8
BRANCH   1  12
ATOM     12  C   UNL     1     -39.831  44.978 -45.477  1.00  0.00     0.039 A 
ATOM     13  C   UNL     1     -40.833  45.654 -44.742  1.00  0.00     0.012 A 
ATOM     14  C   UNL     1     -40.132  43.639 -45.843  1.00  0.00     0.050 A 
ATOM     15  C   UNL     1     -42.040  45.038 -44.388  1.00  0.00     0.001 A 
ATOM     16  C   UNL     1     -41.342  43.026 -45.483  1.00  0.00     0.021 A 
ATOM     17  C   UNL     1     -42.293  43.725 -44.754  1.00  0.00     0.002 A 
ATOM     18  Cl  UNL     1     -39.080  42.673 -46.826  1.00  0.00    -0.084 Cl
ENDBRANCH   1  12
TORSDOF 2
ENDMDL
