MODEL 1
REMARK VINA RESULT:    -5.377      0.000      0.000
REMARK INTER + INTRA:          -5.960
REMARK INTER:                  -6.005
REMARK INTRA:                   0.046
REMARK UNBOUND:                 0.046
REMARK SMILES C[NH2+][C@]1(c2ccccc2Cl)CCCCC1=O
REMARK SMILES IDX 3 1 11 2 15 3 12 4 14 5 16 6 13 7 2 8 1 9 4 12 5 13 9 14
REMARK SMILES IDX 6 15 8 16 7 17 10 18
REMARK H PARENT 2 10 2 11
ROOT
ATOM      1  C   UNL     1     -10.901  50.828 -46.981  1.00  0.00     0.182 C 
ATOM      2  C   UNL     1     -10.602  49.322 -47.261  1.00  0.00     0.082 C 
ATOM      3  C   UNL     1     -12.318  50.933 -46.323  1.00  0.00     0.197 C 
ATOM      4  C   UNL     1     -11.720  48.545 -47.942  1.00  0.00     0.008 C 
ATOM      5  C   UNL     1     -13.422  49.996 -46.790  1.00  0.00     0.083 C 
ATOM      6  O   UNL     1     -12.612  51.843 -45.546  1.00  0.00    -0.292 OA
ATOM      7  C   UNL     1     -12.962  48.579 -47.067  1.00  0.00     0.008 C 
ENDROOT
BRANCH   1   8
ATOM      8  N   UNL     1     -10.813  51.542 -48.363  1.00  0.00    -0.334 N 
ATOM      9  C   UNL     1     -12.033  51.833 -49.158  1.00  0.00     0.332 C 
ATOM     10  H   UNL     1     -10.100  51.089 -48.946  1.00  0.00     0.347 HD
ATOM     11  H   UNL     1     -10.422  52.476 -48.166  1.00  0.00     0.347 HD
ENDBRANCH   1   8
BRANCH   1  12
ATOM     12  C   UNL     1      -9.822  51.465 -46.040  1.00  0.00     0.039 A 
ATOM     13  C   UNL     1      -9.057  52.588 -46.436  1.00  0.00     0.012 A 
ATOM     14  C   UNL     1      -9.525  50.940 -44.755  1.00  0.00     0.050 A 
ATOM     15  C   UNL     1      -8.063  53.139 -45.616  1.00  0.00     0.001 A 
ATOM     16  C   UNL     1      -8.527  51.493 -43.939  1.00  0.00     0.021 A 
ATOM     17  C   UNL     1      -7.796  52.590 -44.371  1.00  0.00     0.002 A 
ATOM     18  Cl  UNL     1     -10.414  49.630 -44.047  1.00  0.00    -0.084 Cl
ENDBRANCH   1  12
TORSDOF 2
ENDMDL
MODEL 2
REMARK VINA RESULT:    -5.292     54.296     56.165
REMARK INTER + INTRA:          -5.865
REMARK INTER:                  -5.986
REMARK INTRA:                   0.121
REMARK UNBOUND:                 0.046
REMARK SMILES C[NH2+][C@]1(c2ccccc2Cl)CCCCC1=O
REMARK SMILES IDX 3 1 11 2 15 3 12 4 14 5 16 6 13 7 2 8 1 9 4 12 5 13 9 14
REMARK SMILES IDX 6 15 8 16 7 17 10 18
REMARK H PARENT 2 10 2 11
ROOT
ATOM      1  C   UNL     1     -57.899  22.299 -49.142  1.00  0.00     0.182 C 
ATOM      2  C   UNL     1     -58.384  23.021 -47.847  1.00  0.00     0.082 C 
ATOM      3  C   UNL     1     -56.867  21.195 -48.733  1.00  0.00     0.197 C 
ATOM      4  C   UNL     1     -57.285  23.450 -46.883  1.00  0.00     0.008 C 
ATOM      5  C   UNL     1     -55.900  21.473 -47.592  1.00  0.00     0.083 C 
ATOM      6  O   UNL     1     -56.711  20.167 -49.395  1.00  0.00    -0.292 OA
ATOM      7  C   UNL     1     -56.510  22.225 -46.426  1.00  0.00     0.008 C 
ENDROOT
BRANCH   1   8
ATOM      8  N   UNL     1     -57.282  23.411 -50.042  1.00  0.00    -0.334 N 
ATOM      9  C   UNL     1     -57.963  24.718 -50.227  1.00  0.00     0.332 C 
ATOM     10  H   UNL     1     -57.006  23.015 -50.948  1.00  0.00     0.347 HD
ATOM     11  H   UNL     1     -56.388  23.664 -49.594  1.00  0.00     0.347 HD
ENDBRANCH   1   8
BRANCH   1  12
ATOM     12  C   UNL     1     -59.095  21.654 -49.925  1.00  0.00     0.039 A 
ATOM     13  C   UNL     1     -60.329  21.367 -49.297  1.00  0.00     0.012 A 
ATOM     14  C   UNL     1     -59.001  21.292 -51.295  1.00  0.00     0.050 A 
ATOM     15  C   UNL     1     -61.388  20.755 -49.979  1.00  0.00     0.001 A 
ATOM     16  C   UNL     1     -60.064  20.676 -51.973  1.00  0.00     0.021 A 
ATOM     17  C   UNL     1     -61.254  20.406 -51.314  1.00  0.00     0.002 A 
ATOM     18  Cl  UNL     1     -57.611  21.645 -52.269  1.00  0.00    -0.084 Cl
ENDBRANCH   1  12
TORSDOF 2
ENDMDL
MODEL 3
REMARK VINA RESULT:    -5.276     54.419     55.405
REMARK INTER + INTRA:          -5.847
REMARK INTER:                  -6.120
REMARK INTRA:                   0.273
REMARK UNBOUND:                 0.046
REMARK SMILES C[NH2+][C@]1(c2ccccc2Cl)CCCCC1=O
REMARK SMILES IDX 3 1 11 2 15 3 12 4 14 5 16 6 13 7 2 8 1 9 4 12 5 13 9 14
REMARK SMILES IDX 6 15 8 16 7 17 10 18
REMARK H PARENT 2 10 2 11
ROOT
ATOM      1  C   UNL     1     -57.990  22.549 -47.988  1.00  0.00     0.182 C 
ATOM      2  C   UNL     1     -57.245  23.375 -46.893  1.00  0.00     0.082 C 
ATOM      3  C   UNL     1     -59.424  22.211 -47.458  1.00  0.00     0.197 C 
ATOM      4  C   UNL     1     -57.326  22.816 -45.479  1.00  0.00     0.008 C 
ATOM      5  C   UNL     1     -59.611  21.889 -45.982  1.00  0.00     0.083 C 
ATOM      6  O   UNL     1     -60.381  22.051 -48.217  1.00  0.00    -0.292 OA
ATOM      7  C   UNL     1     -58.782  22.747 -45.047  1.00  0.00     0.008 C 
ENDROOT
BRANCH   1   8
ATOM      8  N   UNL     1     -57.114  21.285 -48.235  1.00  0.00    -0.334 N 
ATOM      9  C   UNL     1     -55.640  21.321 -48.051  1.00  0.00     0.332 C 
ATOM     10  H   UNL     1     -57.357  20.861 -49.138  1.00  0.00     0.347 HD
ATOM     11  H   UNL     1     -57.428  20.592 -47.538  1.00  0.00     0.347 HD
ENDBRANCH   1   8
BRANCH   1  12
ATOM     12  C   UNL     1     -58.088  23.338 -49.339  1.00  0.00     0.039 A 
ATOM     13  C   UNL     1     -58.074  24.752 -49.379  1.00  0.00     0.012 A 
ATOM     14  C   UNL     1     -58.228  22.687 -50.593  1.00  0.00     0.050 A 
ATOM     15  C   UNL     1     -58.202  25.464 -50.579  1.00  0.00     0.001 A 
ATOM     16  C   UNL     1     -58.358  23.405 -51.791  1.00  0.00     0.021 A 
ATOM     17  C   UNL     1     -58.348  24.792 -51.783  1.00  0.00     0.002 A 
ATOM     18  Cl  UNL     1     -58.170  20.963 -50.769  1.00  0.00    -0.084 Cl
ENDBRANCH   1  12
TORSDOF 2
ENDMDL
MODEL 4
REMARK VINA RESULT:    -5.259     26.029     28.650
REMARK INTER + INTRA:          -5.829
REMARK INTER:                  -5.979
REMARK INTRA:                   0.150
REMARK UNBOUND:                 0.046
REMARK SMILES C[NH2+][C@]1(c2ccccc2Cl)CCCCC1=O
REMARK SMILES IDX 3 1 11 2 15 3 12 4 14 5 16 6 13 7 2 8 1 9 4 12 5 13 9 14
REMARK SMILES IDX 6 15 8 16 7 17 10 18
REMARK H PARENT 2 10 2 11
ROOT
ATOM      1  C   UNL     1     -37.747  45.459 -46.012  1.00  0.00     0.182 C 
ATOM      2  C   UNL     1     -36.306  45.163 -46.531  1.00  0.00     0.082 C 
ATOM      3  C   UNL     1     -38.298  46.708 -46.778  1.00  0.00     0.197 C 
ATOM      4  C   UNL     1     -35.376  46.366 -46.613  1.00  0.00     0.008 C 
ATOM      5  C   UNL     1     -37.347  47.846 -47.119  1.00  0.00     0.083 C 
ATOM      6  O   UNL     1     -39.502  46.870 -46.986  1.00  0.00    -0.292 OA
ATOM      7  C   UNL     1     -35.969  47.396 -47.561  1.00  0.00     0.008 C 
ENDROOT
BRANCH   1   8
ATOM      8  N   UNL     1     -37.606  45.694 -44.478  1.00  0.00    -0.334 N 
ATOM      9  C   UNL     1     -36.739  44.825 -43.643  1.00  0.00     0.332 C 
ATOM     10  H   UNL     1     -38.535  45.796 -44.053  1.00  0.00     0.347 HD
ATOM     11  H   UNL     1     -37.180  46.629 -44.381  1.00  0.00     0.347 HD
ENDBRANCH   1   8
BRANCH   1  12
ATOM     12  C   UNL     1     -38.701  44.233 -46.225  1.00  0.00     0.039 A 
ATOM     13  C   UNL     1     -38.379  43.185 -47.119  1.00  0.00     0.012 A 
ATOM     14  C   UNL     1     -39.952  44.117 -45.563  1.00  0.00     0.050 A 
ATOM     15  C   UNL     1     -39.245  42.107 -47.345  1.00  0.00     0.001 A 
ATOM     16  C   UNL     1     -40.816  43.036 -45.795  1.00  0.00     0.021 A 
ATOM     17  C   UNL     1     -40.463  42.034 -46.687  1.00  0.00     0.002 A 
ATOM     18  Cl  UNL     1     -40.487  45.244 -44.359  1.00  0.00    -0.084 Cl
ENDBRANCH   1  12
TORSDOF 2
ENDMDL
MODEL 5
REMARK VINA RESULT:    -5.257     27.154     29.527
REMARK INTER + INTRA:          -5.827
REMARK INTER:                  -5.950
REMARK INTRA:                   0.124
REMARK UNBOUND:                 0.046
REMARK SMILES C[NH2+][C@]1(c2ccccc2Cl)CCCCC1=O
REMARK SMILES IDX 3 1 11 2 15 3 12 4 14 5 16 6 13 7 2 8 1 9 4 12 5 13 9 14
REMARK SMILES IDX 6 15 8 16 7 17 10 18
REMARK H PARENT 2 10 2 11
ROOT
ATOM      1  C   UNL     1     -39.909  43.785 -47.023  1.00  0.00     0.182 C 
ATOM      2  C   UNL     1     -39.716  42.436 -47.783  1.00  0.00     0.082 C 
ATOM      3  C   UNL     1     -40.505  43.472 -45.609  1.00  0.00     0.197 C 
ATOM      4  C   UNL     1     -40.906  41.486 -47.749  1.00  0.00     0.008 C 
ATOM      5  C   UNL     1     -41.522  42.349 -45.467  1.00  0.00     0.083 C 
ATOM      6  O   UNL     1     -40.292  44.196 -44.635  1.00  0.00    -0.292 OA
ATOM      7  C   UNL     1     -41.219  41.124 -46.306  1.00  0.00     0.008 C 
ENDROOT
BRANCH   1   8
ATOM      8  N   UNL     1     -40.860  44.641 -47.913  1.00  0.00    -0.334 N 
ATOM      9  C   UNL     1     -40.608  44.811 -49.367  1.00  0.00     0.332 C 
ATOM     10  H   UNL     1     -41.034  45.549 -47.466  1.00  0.00     0.347 HD
ATOM     11  H   UNL     1     -41.773  44.163 -47.878  1.00  0.00     0.347 HD
ENDBRANCH   1   8
BRANCH   1  12
ATOM     12  C   UNL     1     -38.557  44.564 -46.877  1.00  0.00     0.039 A 
ATOM     13  C   UNL     1     -37.306  43.925 -47.048  1.00  0.00     0.012 A 
ATOM     14  C   UNL     1     -38.503  45.941 -46.534  1.00  0.00     0.050 A 
ATOM     15  C   UNL     1     -36.093  44.605 -46.879  1.00  0.00     0.001 A 
ATOM     16  C   UNL     1     -37.286  46.616 -46.363  1.00  0.00     0.021 A 
ATOM     17  C   UNL     1     -36.082  45.947 -46.533  1.00  0.00     0.002 A 
ATOM     18  Cl  UNL     1     -39.922  46.926 -46.375  1.00  0.00    -0.084 Cl
ENDBRANCH   1  12
TORSDOF 2
ENDMDL
