_i0
     RDKit          3D

 33 34  0  0  0  0  0  0  0  0999 V2000
   -2.2012    1.5768    1.8392 C   0  0  0  0  0  0  0  0  0  0  0  0
   -1.1114    1.8556    0.8693 N   0  0  0  0  0  4  0  0  0  0  0  0
   -0.4020    0.7033    0.0981 C   0  0  1  0  0  0  0  0  0  0  0  0
   -1.1036    0.6271   -1.2931 C   0  0  0  0  0  0  0  0  0  0  0  0
    1.1144    1.0772   -0.0404 C   0  0  0  0  0  0  0  0  0  0  0  0
   -0.5503   -0.6891    0.8001 C   0  0  0  0  0  0  0  0  0  0  0  0
   -2.4999    0.0176   -1.2931 C   0  0  0  0  0  0  0  0  0  0  0  0
    1.7807    1.0376   -1.2872 C   0  0  0  0  0  0  0  0  0  0  0  0
    1.9134    1.4443    1.0754 C   0  0  0  0  0  0  0  0  0  0  0  0
   -1.8435   -1.4715    0.6248 C   0  0  0  0  0  0  0  0  0  0  0  0
    0.2823   -1.1072    1.6072 O   0  0  0  0  0  0  0  0  0  0  0  0
   -2.4273   -1.4081   -0.7724 C   0  0  0  0  0  0  0  0  0  0  0  0
    3.1447    1.3324   -1.4117 C   0  0  0  0  0  0  0  0  0  0  0  0
    3.2785    1.7350    0.9452 C   0  0  0  0  0  0  0  0  0  0  0  0
    1.2647    1.6437    2.6712 Cl  0  0  0  0  0  0  0  0  0  0  0  0
    3.8944    1.6760   -0.2972 C   0  0  0  0  0  0  0  0  0  0  0  0
   -2.4570    2.5279    2.3134 H   0  0  0  0  0  0  0  0  0  0  0  0
   -1.8367    0.8777    2.5942 H   0  0  0  0  0  0  0  0  0  0  0  0
   -3.0701    1.1908    1.3099 H   0  0  0  0  0  0  0  0  0  0  0  0
   -1.3893    2.5962    0.2137 H   0  0  0  0  0  0  0  0  0  0  0  0
   -0.3773    2.2926    1.4467 H   0  0  0  0  0  0  0  0  0  0  0  0
   -1.1372    1.6184   -1.7635 H   0  0  0  0  0  0  0  0  0  0  0  0
   -0.5257   -0.0165   -1.9672 H   0  0  0  0  0  0  0  0  0  0  0  0
   -3.2033    0.6184   -0.7130 H   0  0  0  0  0  0  0  0  0  0  0  0
   -2.8846    0.0022   -2.3201 H   0  0  0  0  0  0  0  0  0  0  0  0
    1.2862    0.7715   -2.2178 H   0  0  0  0  0  0  0  0  0  0  0  0
   -1.6426   -2.5200    0.8749 H   0  0  0  0  0  0  0  0  0  0  0  0
   -2.5696   -1.1029    1.3550 H   0  0  0  0  0  0  0  0  0  0  0  0
   -3.4272   -1.8565   -0.7758 H   0  0  0  0  0  0  0  0  0  0  0  0
   -1.8099   -2.0106   -1.4508 H   0  0  0  0  0  0  0  0  0  0  0  0
    3.6262    1.2831   -2.3880 H   0  0  0  0  0  0  0  0  0  0  0  0
    3.8734    2.0103    1.8150 H   0  0  0  0  0  0  0  0  0  0  0  0
    4.9555    1.8966   -0.3950 H   0  0  0  0  0  0  0  0  0  0  0  0
  1  2  1  0
  3  2  1  1
  3  4  1  0
  3  5  1  0
  6  3  1  0
  4  7  1  0
  5  8  2  0
  9  5  1  0
 10  6  1  0
  6 11  2  0
  7 12  1  0
  8 13  1  0
 14  9  2  0
  9 15  1  0
 12 10  1  0
 13 16  2  0
 16 14  1  0
  1 17  1  0
  1 18  1  0
  1 19  1  0
  2 20  1  0
  2 21  1  0
  4 22  1  0
  4 23  1  0
  7 24  1  0
  7 25  1  0
  8 26  1  0
 10 27  1  0
 10 28  1  0
 12 29  1  0
 12 30  1  0
 13 31  1  0
 14 32  1  0
 16 33  1  0
M  CHG  1   2   1
M  END
>  <ScrubInfo>  (1) 
{"isomerGroup": 0, "isomerId": 0, "confId": 0, "nr_conformers:": 1, "nr_isomers:": 2}

$$$$
_i1
     RDKit          3D

 33 34  0  0  0  0  0  0  0  0999 V2000
    0.7072   -1.8091    1.6746 O   0  0  0  0  0  0  0  0  0  0  0  0
   -0.3668   -1.4260    0.8919 C   0  0  0  0  0  0  0  0  0  0  0  0
   -1.4534   -2.2126    0.8112 C   0  0  0  0  0  0  0  0  0  0  0  0
   -2.7205   -1.8360    0.0993 C   0  0  0  0  0  0  0  0  0  0  0  0
   -2.7797   -0.3521   -0.2625 C   0  0  0  0  0  0  0  0  0  0  0  0
   -1.4266    0.1164   -0.8029 C   0  0  0  0  0  0  0  0  0  0  0  0
   -0.2574   -0.0208    0.2367 C   0  0  1  0  0  0  0  0  0  0  0  0
   -0.5510    0.9723    1.3552 N   0  0  0  0  0  4  0  0  0  0  0  0
   -0.6659    2.4138    1.0330 C   0  0  0  0  0  0  0  0  0  0  0  0
    1.1494    0.1941   -0.3951 C   0  0  0  0  0  0  0  0  0  0  0  0
    1.3602   -0.0457   -1.7747 C   0  0  0  0  0  0  0  0  0  0  0  0
    2.6112    0.1194   -2.3823 C   0  0  0  0  0  0  0  0  0  0  0  0
    3.7064    0.5152   -1.6322 C   0  0  0  0  0  0  0  0  0  0  0  0
    3.5519    0.7364   -0.2704 C   0  0  0  0  0  0  0  0  0  0  0  0
    2.3004    0.5729    0.3448 C   0  0  0  0  0  0  0  0  0  0  0  0
    2.2917    0.8821    2.0527 Cl  0  0  0  0  0  0  0  0  0  0  0  0
    0.6150   -2.7463    1.9353 H   0  0  0  0  0  0  0  0  0  0  0  0
   -1.4694   -3.1856    1.3005 H   0  0  0  0  0  0  0  0  0  0  0  0
   -3.5820   -2.0846    0.7294 H   0  0  0  0  0  0  0  0  0  0  0  0
   -2.8005   -2.4448   -0.8091 H   0  0  0  0  0  0  0  0  0  0  0  0
   -3.0775    0.2404    0.6097 H   0  0  0  0  0  0  0  0  0  0  0  0
   -3.5560   -0.1963   -1.0209 H   0  0  0  0  0  0  0  0  0  0  0  0
   -1.2444   -0.5071   -1.6849 H   0  0  0  0  0  0  0  0  0  0  0  0
   -1.5036    1.1425   -1.1802 H   0  0  0  0  0  0  0  0  0  0  0  0
    0.2262    0.8405    2.0207 H   0  0  0  0  0  0  0  0  0  0  0  0
   -1.3740    0.6531    1.8763 H   0  0  0  0  0  0  0  0  0  0  0  0
   -0.6464    2.9587    1.9799 H   0  0  0  0  0  0  0  0  0  0  0  0
   -1.6204    2.5860    0.5320 H   0  0  0  0  0  0  0  0  0  0  0  0
    0.1737    2.7179    0.4054 H   0  0  0  0  0  0  0  0  0  0  0  0
    0.5700   -0.3876   -2.4374 H   0  0  0  0  0  0  0  0  0  0  0  0
    2.7295   -0.0752   -3.4476 H   0  0  0  0  0  0  0  0  0  0  0  0
    4.6800    0.6373   -2.1020 H   0  0  0  0  0  0  0  0  0  0  0  0
    4.4227    1.0306    0.3140 H   0  0  0  0  0  0  0  0  0  0  0  0
  1  2  1  0
  2  3  2  0
  3  4  1  0
  4  5  1  0
  5  6  1  0
  6  7  1  0
  7  8  1  1
  8  9  1  0
  7 10  1  0
 10 11  2  0
 11 12  1  0
 12 13  2  0
 13 14  1  0
 14 15  2  0
 15 16  1  0
  7  2  1  0
 15 10  1  0
  1 17  1  0
  3 18  1  0
  4 19  1  0
  4 20  1  0
  5 21  1  0
  5 22  1  0
  6 23  1  0
  6 24  1  0
  8 25  1  0
  8 26  1  0
  9 27  1  0
  9 28  1  0
  9 29  1  0
 11 30  1  0
 12 31  1  0
 13 32  1  0
 14 33  1  0
M  CHG  1   8   1
M  END
>  <ScrubInfo>  (2) 
{"isomerGroup": 0, "isomerId": 1, "confId": 0, "nr_conformers:": 1, "nr_isomers:": 2}

$$$$
